OPT_V8/My_Campus_24/powerflow_results_t5.txt
Pandapower Network Debug Info
==================================================

BUS:
       vm_pu  va_degree      p_mw    q_mvar
0   0.992727   0.137521  0.001177  0.001153
1   0.988347   0.226741  0.001529  0.001635
2   0.984220   0.340750  0.001754  0.003507
3   0.988787   0.225671  0.002530  0.004235
4   0.990204   0.210885  0.002729  0.004611
5   0.991327   0.164479  0.003518  0.006327
6   0.989275   0.166498  0.001431  0.001155
7   0.997525   0.048315  0.001485  0.002352
8   0.997980   0.035754  0.002047  0.002535
9   0.999889   0.000420  0.008316  0.008678
10  0.999876   0.000391  0.011835  0.008110
11  0.999865   0.000382  0.013187  0.009943
12  0.999767   0.001905  0.011842  0.006262
13  0.999740   0.002219  0.011791  0.011133
14  0.999750   0.002165  0.011258  0.013270
15  0.999931   0.000387  0.000000  0.000000
16  0.999931   0.000394  0.000000  0.000000
17  0.999773   0.001964  0.000000  0.000000
18  0.999773   0.001974  0.000000  0.000000
19  1.000000   0.000000 -0.040482 -0.042366
20  1.000000   0.000006  0.000000  0.000000
21  1.000000   0.000000 -0.046255 -0.052748
22  1.000000   0.000007  0.000000  0.000000
--------------------------------------------------

LINE:
    p_from_mw  q_from_mvar   p_to_mw  q_to_mvar         pl_mw       ql_mvar  i_from_ka   i_to_ka      i_ka  vm_from_pu  va_from_degree  vm_to_pu  va_to_degree  loading_percent
0    0.040472     0.038366 -0.040469  -0.038363  3.041899e-06  2.371818e-06   0.002146  0.002146  0.002146    1.000000        0.000006  0.999931      0.000387         0.933241
1    0.046245     0.048748 -0.046233  -0.048739  1.214460e-05  9.469345e-06   0.002586  0.002586  0.002586    1.000000        0.000007  0.999773      0.001964         1.124466
2    0.033339     0.026733 -0.033338  -0.026732  1.412340e-06  1.101225e-06   0.001645  0.001645  0.001645    0.999931        0.000387  0.999889      0.000420         0.715189
3    0.011842     0.006262 -0.011842  -0.006262  6.208072e-08  4.840536e-08   0.000516  0.000516  0.000516    0.999773        0.001964  0.999767      0.001905         0.224219
4    0.023050     0.024404 -0.023050  -0.024404  6.164440e-07  4.806516e-07   0.001292  0.001292  0.001292    0.999773        0.001964  0.999750      0.002165         0.561896
5    0.007119     0.010631 -0.007043  -0.010571  7.657359e-05  5.970569e-05   0.018468  0.018468  0.018468    0.999931        0.000394  0.992727      0.137521         8.029672
6    0.005015     0.007534 -0.004952  -0.007484  6.357950e-05  4.957398e-05   0.013066  0.013066  0.013066    0.999773        0.001974  0.991327      0.164479         5.681073
7    0.001490     0.002356 -0.001485  -0.002352  5.252640e-06  4.095570e-06   0.004025  0.004025  0.004025    0.999773        0.001974  0.997525      0.048315         1.749819
8    0.004825     0.007183 -0.004812  -0.007173  1.288103e-05  1.004355e-05   0.012493  0.012493  0.012493    0.999773        0.001974  0.997980      0.035754         5.431773
9   -0.025022    -0.018054  0.025022   0.018054  3.293186e-07  2.567751e-07   0.001188  0.001188  0.001188    0.999876        0.000391  0.999889      0.000420         0.516419
10  -0.013187    -0.009943  0.013187   0.009943  1.334348e-07  1.040413e-07   0.000636  0.000636  0.000636    0.999865        0.000382  0.999876      0.000391         0.276421
11   0.011792     0.011133 -0.011791  -0.011133  1.286851e-07  1.003379e-07   0.000624  0.000624  0.000624    0.999750        0.002165  0.999740      0.002219         0.271457
12  -0.003297    -0.005153  0.003319   0.005171  2.266511e-05  1.767236e-05   0.008934  0.008934  0.008934    0.988347        0.226741  0.992727      0.137521         3.884250
13  -0.002530    -0.004235  0.002547   0.004248  1.661728e-05  1.295677e-05   0.007201  0.007201  0.007201    0.988787        0.225671  0.992727      0.137521         3.130732
14  -0.001754    -0.003507  0.001768   0.003518  1.435822e-05  1.119534e-05   0.005750  0.005750  0.005750    0.984220        0.340750  0.988347      0.226741         2.500201
15   0.002765     0.004638 -0.002729  -0.004611  3.562443e-05  2.777695e-05   0.007810  0.007810  0.007810    0.997980        0.035754  0.990204      0.210885         3.395659
16  -0.001431    -0.001155  0.001434   0.001158  3.008332e-06  2.345646e-06   0.002683  0.002683  0.002683    0.989275        0.166498  0.991327      0.164479         1.166540
--------------------------------------------------

TRAFO:
    p_hv_mw  q_hv_mvar   p_lv_mw  q_lv_mvar    pl_mw   ql_mvar   i_hv_ka   i_lv_ka  vm_hv_pu  va_hv_degree  vm_lv_pu  va_lv_degree  loading_percent
0  0.007129   0.011630 -0.007119  -0.010631  0.00001  0.001000  0.000525  0.018468  0.999931      0.000387  0.999931      0.000394         0.136425
1  0.011341   0.018073 -0.011331  -0.017073  0.00001  0.000999  0.000821  0.029583  0.999773      0.001964  0.999773      0.001974         0.213411
2  0.040482   0.042366 -0.040472  -0.038366  0.00001  0.004000  0.000483  0.002146  1.000000      0.000000  1.000000      0.000006         0.146493
3  0.046255   0.052748 -0.046245  -0.048748  0.00001  0.004000  0.000579  0.002586  1.000000      0.000000  1.000000      0.000007         0.175390
--------------------------------------------------
